<?xml version="1.0" encoding="UTF-8"?>

<!-- generated on 2026-03-02T13:46:17.599292+00:00 by Eclipse SUMO netedit 1.25.0
<neteditConfiguration xmlns:xsi="http://www.w3.org/2001/XMLSchema-instance" xsi:noNamespaceSchemaLocation="http://sumo.dlr.de/xsd/neteditConfiguration.xsd">

    <input>
        <sumocfg-file value="/home/lijiaxu_user/projects/traffic_signal_optimization/config/5.sumocfg"/>
        <sumo-net-file value="/home/lijiaxu_user/projects/traffic_signal_optimization/config/5.net.xml"/>
    </input>

    <output>
        <output-file value="/home/lijiaxu_user/projects/traffic_signal_optimization/config/5.net.xml"/>
    </output>

    <processing>
        <offset.disable-normalization value="true"/>
    </processing>

    <junctions>
        <no-turnarounds value="true"/>
    </junctions>

    <netedit>
        <new-network value="false"/>
    </netedit>

</neteditConfiguration>
-->

<net version="1.20" junctionCornerDetail="5" limitTurnSpeed="5.50" xmlns:xsi="http://www.w3.org/2001/XMLSchema-instance" xsi:noNamespaceSchemaLocation="http://sumo.dlr.de/xsd/net_file.xsd">

    <location netOffset="0.00,0.00" convBoundary="-200.00,-200.00,100.00,100.00" origBoundary="10000000000.00,10000000000.00,-10000000000.00,-10000000000.00" projParameter="!"/>

    <edge id=":J10_0" function="internal">
        <lane id=":J10_0_0" index="0" speed="13.89" length="0.10" shape="-104.80,-100.00 -104.80,-100.00"/>
        <lane id=":J10_0_1" index="1" speed="13.89" length="0.10" shape="-101.60,-100.00 -101.60,-100.00"/>
    </edge>
    <edge id=":J10_2" function="internal">
        <lane id=":J10_2_0" index="0" speed="13.89" length="0.10" shape="-95.20,-100.00 -95.20,-100.00"/>
        <lane id=":J10_2_1" index="1" speed="13.89" length="0.10" shape="-98.40,-100.00 -98.40,-100.00"/>
    </edge>
    <edge id=":J17_0" function="internal">
        <lane id=":J17_0_0" index="0" speed="13.89" length="0.10" shape="-4.80,-100.00 -4.80,-100.00"/>
        <lane id=":J17_0_1" index="1" speed="13.89" length="0.10" shape="-1.60,-100.00 -1.60,-100.00"/>
    </edge>
    <edge id=":J17_2" function="internal">
        <lane id=":J17_2_0" index="0" speed="13.89" length="0.10" shape="4.80,-100.00 4.80,-100.00"/>
        <lane id=":J17_2_1" index="1" speed="13.89" length="0.10" shape="1.60,-100.00 1.60,-100.00"/>
    </edge>
    <edge id=":J5_0" function="internal">
        <lane id=":J5_0_0" index="0" speed="13.89" length="0.10" shape="-100.00,4.80 -100.00,4.80"/>
        <lane id=":J5_0_1" index="1" speed="13.89" length="0.10" shape="-100.00,1.60 -100.00,1.60"/>
    </edge>
    <edge id=":J5_2" function="internal">
        <lane id=":J5_2_0" index="0" speed="13.89" length="0.10" shape="-100.00,-4.80 -100.00,-4.80"/>
        <lane id=":J5_2_1" index="1" speed="13.89" length="0.10" shape="-100.00,-1.60 -100.00,-1.60"/>
    </edge>
    <edge id=":J6_0" function="internal">
        <lane id=":J6_0_0" index="0" speed="13.89" length="0.10" shape="0.00,4.80 0.00,4.80"/>
        <lane id=":J6_0_1" index="1" speed="13.89" length="0.10" shape="0.00,1.60 0.00,1.60"/>
    </edge>
    <edge id=":J6_2" function="internal">
        <lane id=":J6_2_0" index="0" speed="13.89" length="0.10" shape="0.00,-4.80 0.00,-4.80"/>
        <lane id=":J6_2_1" index="1" speed="13.89" length="0.10" shape="0.00,-1.60 0.00,-1.60"/>
    </edge>

    <edge id="-E1" from="J6" to="J5" priority="-1">
        <lane id="-E1_0" index="0" speed="13.89" length="100.00" shape="0.00,4.80 -100.00,4.80"/>
        <lane id="-E1_1" index="1" speed="13.89" length="100.00" shape="0.00,1.60 -100.00,1.60"/>
    </edge>
    <edge id="-E10" from="J12" to="J17" priority="-1">
        <lane id="-E10_0" index="0" speed="13.89" length="100.00" shape="4.80,-200.00 4.80,-100.00"/>
        <lane id="-E10_1" index="1" speed="13.89" length="100.00" shape="1.60,-200.00 1.60,-100.00"/>
    </edge>
    <edge id="-E2" from="J6" to="J7" priority="-1">
        <lane id="-E2_0" index="0" speed="13.89" length="100.00" shape="0.00,-4.80 100.00,-4.80"/>
        <lane id="-E2_1" index="1" speed="13.89" length="100.00" shape="0.00,-1.60 100.00,-1.60"/>
    </edge>
    <edge id="-E3" from="J5" to="J8" priority="-1">
        <lane id="-E3_0" index="0" speed="13.89" length="100.00" shape="-100.00,4.80 -200.00,4.80"/>
        <lane id="-E3_1" index="1" speed="13.89" length="100.00" shape="-100.00,1.60 -200.00,1.60"/>
    </edge>
    <edge id="-E4" from="J10" to="J9" priority="-1">
        <lane id="-E4_0" index="0" speed="13.89" length="200.00" shape="-95.20,-100.00 -95.20,100.00"/>
        <lane id="-E4_1" index="1" speed="13.89" length="200.00" shape="-98.40,-100.00 -98.40,100.00"/>
    </edge>
    <edge id="-E6" from="J13" to="J10" priority="-1">
        <lane id="-E6_0" index="0" speed="13.89" length="100.00" shape="-95.20,-200.00 -95.20,-100.00"/>
        <lane id="-E6_1" index="1" speed="13.89" length="100.00" shape="-98.40,-200.00 -98.40,-100.00"/>
    </edge>
    <edge id="-E7" from="J15" to="J14" priority="-1">
        <lane id="-E7_0" index="0" speed="13.89" length="300.00" shape="100.00,-95.20 -200.00,-95.20"/>
        <lane id="-E7_1" index="1" speed="13.89" length="300.00" shape="100.00,-98.40 -200.00,-98.40"/>
    </edge>
    <edge id="-E9" from="J17" to="J11" priority="-1">
        <lane id="-E9_0" index="0" speed="13.89" length="200.00" shape="4.80,-100.00 4.80,100.00"/>
        <lane id="-E9_1" index="1" speed="13.89" length="200.00" shape="1.60,-100.00 1.60,100.00"/>
    </edge>
    <edge id="E1" from="J5" to="J6" priority="-1">
        <lane id="E1_0" index="0" speed="13.89" length="100.00" shape="-100.00,-4.80 0.00,-4.80"/>
        <lane id="E1_1" index="1" speed="13.89" length="100.00" shape="-100.00,-1.60 0.00,-1.60"/>
    </edge>
    <edge id="E10" from="J17" to="J12" priority="-1">
        <lane id="E10_0" index="0" speed="13.89" length="100.00" shape="-4.80,-100.00 -4.80,-200.00"/>
        <lane id="E10_1" index="1" speed="13.89" length="100.00" shape="-1.60,-100.00 -1.60,-200.00"/>
    </edge>
    <edge id="E2" from="J7" to="J6" priority="-1">
        <lane id="E2_0" index="0" speed="13.89" length="100.00" shape="100.00,4.80 0.00,4.80"/>
        <lane id="E2_1" index="1" speed="13.89" length="100.00" shape="100.00,1.60 0.00,1.60"/>
    </edge>
    <edge id="E3" from="J8" to="J5" priority="-1">
        <lane id="E3_0" index="0" speed="13.89" length="100.00" shape="-200.00,-4.80 -100.00,-4.80"/>
        <lane id="E3_1" index="1" speed="13.89" length="100.00" shape="-200.00,-1.60 -100.00,-1.60"/>
    </edge>
    <edge id="E4" from="J9" to="J10" priority="-1">
        <lane id="E4_0" index="0" speed="13.89" length="200.00" shape="-104.80,100.00 -104.80,-100.00"/>
        <lane id="E4_1" index="1" speed="13.89" length="200.00" shape="-101.60,100.00 -101.60,-100.00"/>
    </edge>
    <edge id="E6" from="J10" to="J13" priority="-1">
        <lane id="E6_0" index="0" speed="13.89" length="100.00" shape="-104.80,-100.00 -104.80,-200.00"/>
        <lane id="E6_1" index="1" speed="13.89" length="100.00" shape="-101.60,-100.00 -101.60,-200.00"/>
    </edge>
    <edge id="E7" from="J14" to="J15" priority="-1">
        <lane id="E7_0" index="0" speed="13.89" length="300.00" shape="-200.00,-104.80 100.00,-104.80"/>
        <lane id="E7_1" index="1" speed="13.89" length="300.00" shape="-200.00,-101.60 100.00,-101.60"/>
    </edge>
    <edge id="E9" from="J11" to="J17" priority="-1">
        <lane id="E9_0" index="0" speed="13.89" length="200.00" shape="-4.80,100.00 -4.80,-100.00"/>
        <lane id="E9_1" index="1" speed="13.89" length="200.00" shape="-1.60,100.00 -1.60,-100.00"/>
    </edge>

    <tlLogic id="J10" type="static" programID="0" offset="0">
        <phase duration="82" state="GGGG"/>
        <phase duration="3"  state="yyyy"/>
        <phase duration="5"  state="rrrr"/>
    </tlLogic>
    <tlLogic id="J10" type="static" programID="1" offset="0">
        <phase duration="82" state="GGGG"/>
        <phase duration="3"  state="yyyy"/>
        <phase duration="5"  state="rrrr"/>
    </tlLogic>
    <tlLogic id="J10" type="static" programID="2" offset="0">
        <phase duration="82" state="GGGG"/>
        <phase duration="3"  state="yyyy"/>
        <phase duration="5"  state="rrrr"/>
    </tlLogic>
    <tlLogic id="J10" type="static" programID="3" offset="0">
        <phase duration="82" state="GGGG"/>
        <phase duration="3"  state="yyyy"/>
        <phase duration="5"  state="rrrr"/>
    </tlLogic>
    <tlLogic id="J17" type="static" programID="0" offset="0">
        <phase duration="82" state="GGGG"/>
        <phase duration="3"  state="yyyy"/>
        <phase duration="5"  state="rrrr"/>
    </tlLogic>
    <tlLogic id="J17" type="static" programID="1" offset="0">
        <phase duration="82" state="GGGG"/>
        <phase duration="3"  state="yyyy"/>
        <phase duration="5"  state="rrrr"/>
    </tlLogic>
    <tlLogic id="J5" type="static" programID="0" offset="0">
        <phase duration="30" state="rrrr"/>
        <phase duration="5"  state="yyyy"/>
        <phase duration="35" state="gggg"/>
    </tlLogic>
    <tlLogic id="J6" type="static" programID="0" offset="0">
        <phase duration="82" state="GGGG"/>
        <phase duration="3"  state="yyyy"/>
        <phase duration="5"  state="rrrr"/>
    </tlLogic>
    <tlLogic id="J6" type="static" programID="1" offset="0">
        <phase duration="82" state="GGGG"/>
        <phase duration="3"  state="yyyy"/>
        <phase duration="5"  state="rrrr"/>
    </tlLogic>

    <junction id="J10" type="traffic_light" x="-100.00" y="-100.00" incLanes="E4_0 E4_1 -E6_0 -E6_1" intLanes=":J10_0_0 :J10_0_1 :J10_2_0 :J10_2_1" shape="-106.40,-100.00 -93.60,-100.00 -106.40,-100.00">
        <request index="0" response="0000" foes="0000" cont="0"/>
        <request index="1" response="0000" foes="0000" cont="0"/>
        <request index="2" response="0000" foes="0000" cont="0"/>
        <request index="3" response="0000" foes="0000" cont="0"/>
    </junction>
    <junction id="J11" type="dead_end" x="0.00" y="100.00" incLanes="-E9_0 -E9_1" intLanes="" shape="0.00,100.00 6.40,100.00 0.00,100.00"/>
    <junction id="J12" type="dead_end" x="0.00" y="-200.00" incLanes="E10_0 E10_1" intLanes="" shape="0.00,-200.00 -6.40,-200.00 0.00,-200.00"/>
    <junction id="J13" type="dead_end" x="-100.00" y="-200.00" incLanes="E6_0 E6_1" intLanes="" shape="-100.00,-200.00 -106.40,-200.00 -100.00,-200.00"/>
    <junction id="J14" type="dead_end" x="-200.00" y="-100.00" incLanes="-E7_0 -E7_1" intLanes="" shape="-200.00,-100.00 -200.00,-93.60 -200.00,-100.00"/>
    <junction id="J15" type="dead_end" x="100.00" y="-100.00" incLanes="E7_0 E7_1" intLanes="" shape="100.00,-100.00 100.00,-106.40 100.00,-100.00"/>
    <junction id="J17" type="traffic_light" x="0.00" y="-100.00" incLanes="E9_0 E9_1 -E10_0 -E10_1" intLanes=":J17_0_0 :J17_0_1 :J17_2_0 :J17_2_1" shape="-6.40,-100.00 6.40,-100.00 -6.40,-100.00">
        <request index="0" response="0000" foes="0000" cont="0"/>
        <request index="1" response="0000" foes="0000" cont="0"/>
        <request index="2" response="0000" foes="0000" cont="0"/>
        <request index="3" response="0000" foes="0000" cont="0"/>
    </junction>
    <junction id="J5" type="traffic_light" x="-100.00" y="0.00" incLanes="-E1_0 -E1_1 E3_0 E3_1" intLanes=":J5_0_0 :J5_0_1 :J5_2_0 :J5_2_1" shape="-100.00,6.40 -100.00,-6.40 -100.00,6.40">
        <request index="0" response="0000" foes="0000" cont="0"/>
        <request index="1" response="0000" foes="0000" cont="0"/>
        <request index="2" response="0000" foes="0000" cont="0"/>
        <request index="3" response="0000" foes="0000" cont="0"/>
    </junction>
    <junction id="J6" type="traffic_light" x="0.00" y="0.00" incLanes="E2_0 E2_1 E1_0 E1_1" intLanes=":J6_0_0 :J6_0_1 :J6_2_0 :J6_2_1" shape="0.00,6.40 0.00,-6.40 0.00,6.40">
        <request index="0" response="0000" foes="0000" cont="0"/>
        <request index="1" response="0000" foes="0000" cont="0"/>
        <request index="2" response="0000" foes="0000" cont="0"/>
        <request index="3" response="0000" foes="0000" cont="0"/>
    </junction>
    <junction id="J7" type="dead_end" x="100.00" y="0.00" incLanes="-E2_0 -E2_1" intLanes="" shape="100.00,0.00 100.00,-6.40 100.00,0.00"/>
    <junction id="J8" type="dead_end" x="-200.00" y="0.00" incLanes="-E3_0 -E3_1" intLanes="" shape="-200.00,0.00 -200.00,6.40 -200.00,0.00"/>
    <junction id="J9" type="dead_end" x="-100.00" y="100.00" incLanes="-E4_0 -E4_1" intLanes="" shape="-100.00,100.00 -93.60,100.00 -100.00,100.00"/>

    <connection from="-E1" to="-E3" fromLane="0" toLane="0" via=":J5_0_0" tl="J5" linkIndex="0" dir="s" state="O"/>
    <connection from="-E1" to="-E3" fromLane="1" toLane="1" via=":J5_0_1" tl="J5" linkIndex="1" dir="s" state="O"/>
    <connection from="-E10" to="-E9" fromLane="0" toLane="0" via=":J17_2_0" tl="J17" linkIndex="2" dir="s" state="O"/>
    <connection from="-E10" to="-E9" fromLane="1" toLane="1" via=":J17_2_1" tl="J17" linkIndex="3" dir="s" state="O"/>
    <connection from="-E6" to="-E4" fromLane="0" toLane="0" via=":J10_2_0" tl="J10" linkIndex="2" dir="s" state="O"/>
    <connection from="-E6" to="-E4" fromLane="1" toLane="1" via=":J10_2_1" tl="J10" linkIndex="3" dir="s" state="O"/>
    <connection from="E1" to="-E2" fromLane="0" toLane="0" via=":J6_2_0" tl="J6" linkIndex="2" dir="s" state="O"/>
    <connection from="E1" to="-E2" fromLane="1" toLane="1" via=":J6_2_1" tl="J6" linkIndex="3" dir="s" state="O"/>
    <connection from="E2" to="-E1" fromLane="0" toLane="0" via=":J6_0_0" tl="J6" linkIndex="0" dir="s" state="O"/>
    <connection from="E2" to="-E1" fromLane="1" toLane="1" via=":J6_0_1" tl="J6" linkIndex="1" dir="s" state="O"/>
    <connection from="E3" to="E1" fromLane="0" toLane="0" via=":J5_2_0" tl="J5" linkIndex="2" dir="s" state="O"/>
    <connection from="E3" to="E1" fromLane="1" toLane="1" via=":J5_2_1" tl="J5" linkIndex="3" dir="s" state="O"/>
    <connection from="E4" to="E6" fromLane="0" toLane="0" via=":J10_0_0" tl="J10" linkIndex="0" dir="s" state="O"/>
    <connection from="E4" to="E6" fromLane="1" toLane="1" via=":J10_0_1" tl="J10" linkIndex="1" dir="s" state="O"/>
    <connection from="E9" to="E10" fromLane="0" toLane="0" via=":J17_0_0" tl="J17" linkIndex="0" dir="s" state="O"/>
    <connection from="E9" to="E10" fromLane="1" toLane="1" via=":J17_0_1" tl="J17" linkIndex="1" dir="s" state="O"/>

    <connection from=":J10_0" to="E6" fromLane="0" toLane="0" dir="s" state="M"/>
    <connection from=":J10_0" to="E6" fromLane="1" toLane="1" dir="s" state="M"/>
    <connection from=":J10_2" to="-E4" fromLane="0" toLane="0" dir="s" state="M"/>
    <connection from=":J10_2" to="-E4" fromLane="1" toLane="1" dir="s" state="M"/>
    <connection from=":J17_0" to="E10" fromLane="0" toLane="0" dir="s" state="M"/>
    <connection from=":J17_0" to="E10" fromLane="1" toLane="1" dir="s" state="M"/>
    <connection from=":J17_2" to="-E9" fromLane="0" toLane="0" dir="s" state="M"/>
    <connection from=":J17_2" to="-E9" fromLane="1" toLane="1" dir="s" state="M"/>
    <connection from=":J5_0" to="-E3" fromLane="0" toLane="0" dir="s" state="M"/>
    <connection from=":J5_0" to="-E3" fromLane="1" toLane="1" dir="s" state="M"/>
    <connection from=":J5_2" to="E1" fromLane="0" toLane="0" dir="s" state="M"/>
    <connection from=":J5_2" to="E1" fromLane="1" toLane="1" dir="s" state="M"/>
    <connection from=":J6_0" to="-E1" fromLane="0" toLane="0" dir="s" state="M"/>
    <connection from=":J6_0" to="-E1" fromLane="1" toLane="1" dir="s" state="M"/>
    <connection from=":J6_2" to="-E2" fromLane="0" toLane="0" dir="s" state="M"/>
    <connection from=":J6_2" to="-E2" fromLane="1" toLane="1" dir="s" state="M"/>

</net>
