<?xml version="1.0" encoding="UTF-8"?>

<!-- generated on 2026-03-02T13:07:09.457549+00:00 by Eclipse SUMO sumo 1.25.0
-->

<sumoConfiguration xmlns:xsi="http://www.w3.org/2001/XMLSchema-instance" xsi:noNamespaceSchemaLocation="http://sumo.dlr.de/xsd/sumoConfiguration.xsd">

    <input>
        <net-file value="mySumoConfig.net.xml"/>
        <route-files value="mySumoConfig.rou.xml"/>
    </input>

</sumoConfiguration>
