<?xml version="1.0" encoding="UTF-8"?>

<!-- generated on 2026-03-02T13:07:09.438111+00:00 by Eclipse SUMO netedit 1.25.0
-->

<routes xmlns:xsi="http://www.w3.org/2001/XMLSchema-instance" xsi:noNamespaceSchemaLocation="http://sumo.dlr.de/xsd/routes_file.xsd">
    <!-- Vehicles, persons and containers (sorted by depart) -->
    <trip id="t_0" depart="0.00" from="E0" to="E0"/>
    <trip id="t_1" depart="0.00" from="E2" to="E2"/>
    <trip id="t_2" depart="0.00" from="E1" to="E1"/>
    <trip id="t_3" depart="0.00" from="E3" to="E3"/>
    <trip id="t_4" depart="0.00" from="E1" to="E1"/>
    <person id="p_0" depart="0.00">
        <personTrip from="E0" to="E3"/>
    </person>
</routes>
