<?xml version="1.0" encoding="UTF-8"?>

<!-- generated on 2025-12-20T03:15:42.121704+00:00 by Eclipse SUMO netconvert 1.25.0
<netconvertConfiguration xmlns:xsi="http://www.w3.org/2001/XMLSchema-instance" xsi:noNamespaceSchemaLocation="http://sumo.dlr.de/xsd/netconvertConfiguration.xsd">

    <input>
        <node-files value="sumo_network.nod.xml"/>
        <edge-files value="sumo_network.edg.xml"/>
    </input>

    <output>
        <output-file value="sumo_network.net.xml"/>
    </output>

</netconvertConfiguration>
-->

<net version="1.20" junctionCornerDetail="5" limitTurnSpeed="5.50" xmlns:xsi="http://www.w3.org/2001/XMLSchema-instance" xsi:noNamespaceSchemaLocation="http://sumo.dlr.de/xsd/net_file.xsd">

    <location netOffset="500.00,500.00" convBoundary="0.00,0.00,1000.00,1000.00" origBoundary="-500.00,-500.00,500.00,500.00" projParameter="!"/>

    <edge id=":1_0" function="internal">
        <lane id=":1_0_0" index="0" speed="6.51" length="9.03" shape="495.20,510.40 494.85,507.95 493.80,506.20 492.05,505.15 489.60,504.80"/>
    </edge>
    <edge id=":1_1" function="internal">
        <lane id=":1_1_0" index="0" speed="13.89" length="20.80" shape="495.20,510.40 495.20,489.60"/>
        <lane id=":1_1_1" index="1" speed="13.89" length="20.80" shape="498.40,510.40 498.40,489.60"/>
    </edge>
    <edge id=":1_3" function="internal">
        <lane id=":1_3_0" index="0" speed="9.26" length="5.01" shape="498.40,510.40 499.11,505.44"/>
    </edge>
    <edge id=":1_4" function="internal">
        <lane id=":1_4_0" index="0" speed="3.65" length="1.44" shape="498.40,510.40 499.20,509.20"/>
    </edge>
    <edge id=":1_20" function="internal">
        <lane id=":1_20_0" index="0" speed="9.26" length="14.34" shape="499.11,505.44 499.15,505.15 501.40,501.40 505.15,499.15 510.40,498.40"/>
    </edge>
    <edge id=":1_21" function="internal">
        <lane id=":1_21_0" index="0" speed="3.65" length="3.23" shape="499.20,509.20 500.00,508.80 500.80,509.20 501.60,510.40"/>
    </edge>
    <edge id=":1_5" function="internal">
        <lane id=":1_5_0" index="0" speed="6.51" length="9.03" shape="510.40,504.80 507.95,505.15 506.20,506.20 505.15,507.95 504.80,510.40"/>
    </edge>
    <edge id=":1_6" function="internal">
        <lane id=":1_6_0" index="0" speed="13.89" length="20.80" shape="510.40,504.80 489.60,504.80"/>
        <lane id=":1_6_1" index="1" speed="13.89" length="20.80" shape="510.40,501.60 489.60,501.60"/>
    </edge>
    <edge id=":1_8" function="internal">
        <lane id=":1_8_0" index="0" speed="9.26" length="5.01" shape="510.40,501.60 505.44,500.89"/>
    </edge>
    <edge id=":1_9" function="internal">
        <lane id=":1_9_0" index="0" speed="3.65" length="1.44" shape="510.40,501.60 509.20,500.80"/>
    </edge>
    <edge id=":1_22" function="internal">
        <lane id=":1_22_0" index="0" speed="9.26" length="14.34" shape="505.44,500.89 505.15,500.85 501.40,498.60 499.15,494.85 498.40,489.60"/>
    </edge>
    <edge id=":1_23" function="internal">
        <lane id=":1_23_0" index="0" speed="3.65" length="3.23" shape="509.20,500.80 508.80,500.00 509.20,499.20 510.40,498.40"/>
    </edge>
    <edge id=":1_10" function="internal">
        <lane id=":1_10_0" index="0" speed="6.51" length="9.03" shape="504.80,489.60 505.15,492.05 506.20,493.80 507.95,494.85 510.40,495.20"/>
    </edge>
    <edge id=":1_11" function="internal">
        <lane id=":1_11_0" index="0" speed="13.89" length="20.80" shape="504.80,489.60 504.80,510.40"/>
        <lane id=":1_11_1" index="1" speed="13.89" length="20.80" shape="501.60,489.60 501.60,510.40"/>
    </edge>
    <edge id=":1_13" function="internal">
        <lane id=":1_13_0" index="0" speed="9.26" length="5.01" shape="501.60,489.60 500.89,494.56"/>
    </edge>
    <edge id=":1_14" function="internal">
        <lane id=":1_14_0" index="0" speed="3.65" length="1.44" shape="501.60,489.60 500.80,490.80"/>
    </edge>
    <edge id=":1_24" function="internal">
        <lane id=":1_24_0" index="0" speed="9.26" length="14.34" shape="500.89,494.56 500.85,494.85 498.60,498.60 494.85,500.85 489.60,501.60"/>
    </edge>
    <edge id=":1_25" function="internal">
        <lane id=":1_25_0" index="0" speed="3.65" length="3.23" shape="500.80,490.80 500.00,491.20 499.20,490.80 498.40,489.60"/>
    </edge>
    <edge id=":1_15" function="internal">
        <lane id=":1_15_0" index="0" speed="6.51" length="9.03" shape="489.60,495.20 492.05,494.85 493.80,493.80 494.85,492.05 495.20,489.60"/>
    </edge>
    <edge id=":1_16" function="internal">
        <lane id=":1_16_0" index="0" speed="13.89" length="20.80" shape="489.60,495.20 510.40,495.20"/>
        <lane id=":1_16_1" index="1" speed="13.89" length="20.80" shape="489.60,498.40 510.40,498.40"/>
    </edge>
    <edge id=":1_18" function="internal">
        <lane id=":1_18_0" index="0" speed="9.26" length="5.01" shape="489.60,498.40 494.56,499.11"/>
    </edge>
    <edge id=":1_19" function="internal">
        <lane id=":1_19_0" index="0" speed="3.65" length="1.44" shape="489.60,498.40 490.80,499.20"/>
    </edge>
    <edge id=":1_26" function="internal">
        <lane id=":1_26_0" index="0" speed="9.26" length="14.34" shape="494.56,499.11 494.85,499.15 498.60,501.40 500.85,505.15 501.60,510.40"/>
    </edge>
    <edge id=":1_27" function="internal">
        <lane id=":1_27_0" index="0" speed="3.65" length="3.23" shape="490.80,499.20 491.20,500.00 490.80,500.80 489.60,501.60"/>
    </edge>
    <edge id=":2_0" function="internal">
        <lane id=":2_0_0" index="0" speed="6.51" length="9.03" shape="495.20,760.40 494.85,757.95 493.80,756.20 492.05,755.15 489.60,754.80"/>
    </edge>
    <edge id=":2_1" function="internal">
        <lane id=":2_1_0" index="0" speed="13.89" length="20.80" shape="495.20,760.40 495.20,739.60"/>
        <lane id=":2_1_1" index="1" speed="13.89" length="20.80" shape="498.40,760.40 498.40,739.60"/>
    </edge>
    <edge id=":2_3" function="internal">
        <lane id=":2_3_0" index="0" speed="9.26" length="5.01" shape="498.40,760.40 499.11,755.44"/>
    </edge>
    <edge id=":2_4" function="internal">
        <lane id=":2_4_0" index="0" speed="3.65" length="1.44" shape="498.40,760.40 499.20,759.20"/>
    </edge>
    <edge id=":2_20" function="internal">
        <lane id=":2_20_0" index="0" speed="9.26" length="14.34" shape="499.11,755.44 499.15,755.15 501.40,751.40 505.15,749.15 510.40,748.40"/>
    </edge>
    <edge id=":2_21" function="internal">
        <lane id=":2_21_0" index="0" speed="3.65" length="3.23" shape="499.20,759.20 500.00,758.80 500.80,759.20 501.60,760.40"/>
    </edge>
    <edge id=":2_5" function="internal">
        <lane id=":2_5_0" index="0" speed="6.51" length="9.03" shape="510.40,754.80 507.95,755.15 506.20,756.20 505.15,757.95 504.80,760.40"/>
    </edge>
    <edge id=":2_6" function="internal">
        <lane id=":2_6_0" index="0" speed="13.89" length="20.80" shape="510.40,754.80 489.60,754.80"/>
        <lane id=":2_6_1" index="1" speed="13.89" length="20.80" shape="510.40,751.60 489.60,751.60"/>
    </edge>
    <edge id=":2_8" function="internal">
        <lane id=":2_8_0" index="0" speed="9.26" length="5.01" shape="510.40,751.60 505.44,750.89"/>
    </edge>
    <edge id=":2_9" function="internal">
        <lane id=":2_9_0" index="0" speed="3.65" length="1.44" shape="510.40,751.60 509.20,750.80"/>
    </edge>
    <edge id=":2_22" function="internal">
        <lane id=":2_22_0" index="0" speed="9.26" length="14.34" shape="505.44,750.89 505.15,750.85 501.40,748.60 499.15,744.85 498.40,739.60"/>
    </edge>
    <edge id=":2_23" function="internal">
        <lane id=":2_23_0" index="0" speed="3.65" length="3.23" shape="509.20,750.80 508.80,750.00 509.20,749.20 510.40,748.40"/>
    </edge>
    <edge id=":2_10" function="internal">
        <lane id=":2_10_0" index="0" speed="6.51" length="9.03" shape="504.80,739.60 505.15,742.05 506.20,743.80 507.95,744.85 510.40,745.20"/>
    </edge>
    <edge id=":2_11" function="internal">
        <lane id=":2_11_0" index="0" speed="13.89" length="20.80" shape="504.80,739.60 504.80,760.40"/>
        <lane id=":2_11_1" index="1" speed="13.89" length="20.80" shape="501.60,739.60 501.60,760.40"/>
    </edge>
    <edge id=":2_13" function="internal">
        <lane id=":2_13_0" index="0" speed="9.26" length="5.01" shape="501.60,739.60 500.89,744.56"/>
    </edge>
    <edge id=":2_14" function="internal">
        <lane id=":2_14_0" index="0" speed="3.65" length="1.44" shape="501.60,739.60 500.80,740.80"/>
    </edge>
    <edge id=":2_24" function="internal">
        <lane id=":2_24_0" index="0" speed="9.26" length="14.34" shape="500.89,744.56 500.85,744.85 498.60,748.60 494.85,750.85 489.60,751.60"/>
    </edge>
    <edge id=":2_25" function="internal">
        <lane id=":2_25_0" index="0" speed="3.65" length="3.23" shape="500.80,740.80 500.00,741.20 499.20,740.80 498.40,739.60"/>
    </edge>
    <edge id=":2_15" function="internal">
        <lane id=":2_15_0" index="0" speed="6.51" length="9.03" shape="489.60,745.20 492.05,744.85 493.80,743.80 494.85,742.05 495.20,739.60"/>
    </edge>
    <edge id=":2_16" function="internal">
        <lane id=":2_16_0" index="0" speed="13.89" length="20.80" shape="489.60,745.20 510.40,745.20"/>
        <lane id=":2_16_1" index="1" speed="13.89" length="20.80" shape="489.60,748.40 510.40,748.40"/>
    </edge>
    <edge id=":2_18" function="internal">
        <lane id=":2_18_0" index="0" speed="9.26" length="5.01" shape="489.60,748.40 494.56,749.11"/>
    </edge>
    <edge id=":2_19" function="internal">
        <lane id=":2_19_0" index="0" speed="3.65" length="1.44" shape="489.60,748.40 490.80,749.20"/>
    </edge>
    <edge id=":2_26" function="internal">
        <lane id=":2_26_0" index="0" speed="9.26" length="14.34" shape="494.56,749.11 494.85,749.15 498.60,751.40 500.85,755.15 501.60,760.40"/>
    </edge>
    <edge id=":2_27" function="internal">
        <lane id=":2_27_0" index="0" speed="3.65" length="3.23" shape="490.80,749.20 491.20,750.00 490.80,750.80 489.60,751.60"/>
    </edge>
    <edge id=":3_0" function="internal">
        <lane id=":3_0_0" index="0" speed="6.51" length="9.03" shape="745.20,510.40 744.85,507.95 743.80,506.20 742.05,505.15 739.60,504.80"/>
    </edge>
    <edge id=":3_1" function="internal">
        <lane id=":3_1_0" index="0" speed="13.89" length="20.80" shape="745.20,510.40 745.20,489.60"/>
        <lane id=":3_1_1" index="1" speed="13.89" length="20.80" shape="748.40,510.40 748.40,489.60"/>
    </edge>
    <edge id=":3_3" function="internal">
        <lane id=":3_3_0" index="0" speed="9.26" length="5.01" shape="748.40,510.40 749.11,505.44"/>
    </edge>
    <edge id=":3_4" function="internal">
        <lane id=":3_4_0" index="0" speed="3.65" length="1.44" shape="748.40,510.40 749.20,509.20"/>
    </edge>
    <edge id=":3_20" function="internal">
        <lane id=":3_20_0" index="0" speed="9.26" length="14.34" shape="749.11,505.44 749.15,505.15 751.40,501.40 755.15,499.15 760.40,498.40"/>
    </edge>
    <edge id=":3_21" function="internal">
        <lane id=":3_21_0" index="0" speed="3.65" length="3.23" shape="749.20,509.20 750.00,508.80 750.80,509.20 751.60,510.40"/>
    </edge>
    <edge id=":3_5" function="internal">
        <lane id=":3_5_0" index="0" speed="6.51" length="9.03" shape="760.40,504.80 757.95,505.15 756.20,506.20 755.15,507.95 754.80,510.40"/>
    </edge>
    <edge id=":3_6" function="internal">
        <lane id=":3_6_0" index="0" speed="13.89" length="20.80" shape="760.40,504.80 739.60,504.80"/>
        <lane id=":3_6_1" index="1" speed="13.89" length="20.80" shape="760.40,501.60 739.60,501.60"/>
    </edge>
    <edge id=":3_8" function="internal">
        <lane id=":3_8_0" index="0" speed="9.26" length="5.01" shape="760.40,501.60 755.44,500.89"/>
    </edge>
    <edge id=":3_9" function="internal">
        <lane id=":3_9_0" index="0" speed="3.65" length="1.44" shape="760.40,501.60 759.20,500.80"/>
    </edge>
    <edge id=":3_22" function="internal">
        <lane id=":3_22_0" index="0" speed="9.26" length="14.34" shape="755.44,500.89 755.15,500.85 751.40,498.60 749.15,494.85 748.40,489.60"/>
    </edge>
    <edge id=":3_23" function="internal">
        <lane id=":3_23_0" index="0" speed="3.65" length="3.23" shape="759.20,500.80 758.80,500.00 759.20,499.20 760.40,498.40"/>
    </edge>
    <edge id=":3_10" function="internal">
        <lane id=":3_10_0" index="0" speed="6.51" length="9.03" shape="754.80,489.60 755.15,492.05 756.20,493.80 757.95,494.85 760.40,495.20"/>
    </edge>
    <edge id=":3_11" function="internal">
        <lane id=":3_11_0" index="0" speed="13.89" length="20.80" shape="754.80,489.60 754.80,510.40"/>
        <lane id=":3_11_1" index="1" speed="13.89" length="20.80" shape="751.60,489.60 751.60,510.40"/>
    </edge>
    <edge id=":3_13" function="internal">
        <lane id=":3_13_0" index="0" speed="9.26" length="5.01" shape="751.60,489.60 750.89,494.56"/>
    </edge>
    <edge id=":3_14" function="internal">
        <lane id=":3_14_0" index="0" speed="3.65" length="1.44" shape="751.60,489.60 750.80,490.80"/>
    </edge>
    <edge id=":3_24" function="internal">
        <lane id=":3_24_0" index="0" speed="9.26" length="14.34" shape="750.89,494.56 750.85,494.85 748.60,498.60 744.85,500.85 739.60,501.60"/>
    </edge>
    <edge id=":3_25" function="internal">
        <lane id=":3_25_0" index="0" speed="3.65" length="3.23" shape="750.80,490.80 750.00,491.20 749.20,490.80 748.40,489.60"/>
    </edge>
    <edge id=":3_15" function="internal">
        <lane id=":3_15_0" index="0" speed="6.51" length="9.03" shape="739.60,495.20 742.05,494.85 743.80,493.80 744.85,492.05 745.20,489.60"/>
    </edge>
    <edge id=":3_16" function="internal">
        <lane id=":3_16_0" index="0" speed="13.89" length="20.80" shape="739.60,495.20 760.40,495.20"/>
        <lane id=":3_16_1" index="1" speed="13.89" length="20.80" shape="739.60,498.40 760.40,498.40"/>
    </edge>
    <edge id=":3_18" function="internal">
        <lane id=":3_18_0" index="0" speed="9.26" length="5.01" shape="739.60,498.40 744.56,499.11"/>
    </edge>
    <edge id=":3_19" function="internal">
        <lane id=":3_19_0" index="0" speed="3.65" length="1.44" shape="739.60,498.40 740.80,499.20"/>
    </edge>
    <edge id=":3_26" function="internal">
        <lane id=":3_26_0" index="0" speed="9.26" length="14.34" shape="744.56,499.11 744.85,499.15 748.60,501.40 750.85,505.15 751.60,510.40"/>
    </edge>
    <edge id=":3_27" function="internal">
        <lane id=":3_27_0" index="0" speed="3.65" length="3.23" shape="740.80,499.20 741.20,500.00 740.80,500.80 739.60,501.60"/>
    </edge>
    <edge id=":4_0" function="internal">
        <lane id=":4_0_0" index="0" speed="6.51" length="9.03" shape="745.20,760.40 744.85,757.95 743.80,756.20 742.05,755.15 739.60,754.80"/>
    </edge>
    <edge id=":4_1" function="internal">
        <lane id=":4_1_0" index="0" speed="13.89" length="20.80" shape="745.20,760.40 745.20,739.60"/>
        <lane id=":4_1_1" index="1" speed="13.89" length="20.80" shape="748.40,760.40 748.40,739.60"/>
    </edge>
    <edge id=":4_3" function="internal">
        <lane id=":4_3_0" index="0" speed="9.26" length="5.01" shape="748.40,760.40 749.11,755.44"/>
    </edge>
    <edge id=":4_4" function="internal">
        <lane id=":4_4_0" index="0" speed="3.65" length="1.44" shape="748.40,760.40 749.20,759.20"/>
    </edge>
    <edge id=":4_20" function="internal">
        <lane id=":4_20_0" index="0" speed="9.26" length="14.34" shape="749.11,755.44 749.15,755.15 751.40,751.40 755.15,749.15 760.40,748.40"/>
    </edge>
    <edge id=":4_21" function="internal">
        <lane id=":4_21_0" index="0" speed="3.65" length="3.23" shape="749.20,759.20 750.00,758.80 750.80,759.20 751.60,760.40"/>
    </edge>
    <edge id=":4_5" function="internal">
        <lane id=":4_5_0" index="0" speed="6.51" length="9.03" shape="760.40,754.80 757.95,755.15 756.20,756.20 755.15,757.95 754.80,760.40"/>
    </edge>
    <edge id=":4_6" function="internal">
        <lane id=":4_6_0" index="0" speed="13.89" length="20.80" shape="760.40,754.80 739.60,754.80"/>
        <lane id=":4_6_1" index="1" speed="13.89" length="20.80" shape="760.40,751.60 739.60,751.60"/>
    </edge>
    <edge id=":4_8" function="internal">
        <lane id=":4_8_0" index="0" speed="9.26" length="5.01" shape="760.40,751.60 755.44,750.89"/>
    </edge>
    <edge id=":4_9" function="internal">
        <lane id=":4_9_0" index="0" speed="3.65" length="1.44" shape="760.40,751.60 759.20,750.80"/>
    </edge>
    <edge id=":4_22" function="internal">
        <lane id=":4_22_0" index="0" speed="9.26" length="14.34" shape="755.44,750.89 755.15,750.85 751.40,748.60 749.15,744.85 748.40,739.60"/>
    </edge>
    <edge id=":4_23" function="internal">
        <lane id=":4_23_0" index="0" speed="3.65" length="3.23" shape="759.20,750.80 758.80,750.00 759.20,749.20 760.40,748.40"/>
    </edge>
    <edge id=":4_10" function="internal">
        <lane id=":4_10_0" index="0" speed="6.51" length="9.03" shape="754.80,739.60 755.15,742.05 756.20,743.80 757.95,744.85 760.40,745.20"/>
    </edge>
    <edge id=":4_11" function="internal">
        <lane id=":4_11_0" index="0" speed="13.89" length="20.80" shape="754.80,739.60 754.80,760.40"/>
        <lane id=":4_11_1" index="1" speed="13.89" length="20.80" shape="751.60,739.60 751.60,760.40"/>
    </edge>
    <edge id=":4_13" function="internal">
        <lane id=":4_13_0" index="0" speed="9.26" length="5.01" shape="751.60,739.60 750.89,744.56"/>
    </edge>
    <edge id=":4_14" function="internal">
        <lane id=":4_14_0" index="0" speed="3.65" length="1.44" shape="751.60,739.60 750.80,740.80"/>
    </edge>
    <edge id=":4_24" function="internal">
        <lane id=":4_24_0" index="0" speed="9.26" length="14.34" shape="750.89,744.56 750.85,744.85 748.60,748.60 744.85,750.85 739.60,751.60"/>
    </edge>
    <edge id=":4_25" function="internal">
        <lane id=":4_25_0" index="0" speed="3.65" length="3.23" shape="750.80,740.80 750.00,741.20 749.20,740.80 748.40,739.60"/>
    </edge>
    <edge id=":4_15" function="internal">
        <lane id=":4_15_0" index="0" speed="6.51" length="9.03" shape="739.60,745.20 742.05,744.85 743.80,743.80 744.85,742.05 745.20,739.60"/>
    </edge>
    <edge id=":4_16" function="internal">
        <lane id=":4_16_0" index="0" speed="13.89" length="20.80" shape="739.60,745.20 760.40,745.20"/>
        <lane id=":4_16_1" index="1" speed="13.89" length="20.80" shape="739.60,748.40 760.40,748.40"/>
    </edge>
    <edge id=":4_18" function="internal">
        <lane id=":4_18_0" index="0" speed="9.26" length="5.01" shape="739.60,748.40 744.56,749.11"/>
    </edge>
    <edge id=":4_19" function="internal">
        <lane id=":4_19_0" index="0" speed="3.65" length="1.44" shape="739.60,748.40 740.80,749.20"/>
    </edge>
    <edge id=":4_26" function="internal">
        <lane id=":4_26_0" index="0" speed="9.26" length="14.34" shape="744.56,749.11 744.85,749.15 748.60,751.40 750.85,755.15 751.60,760.40"/>
    </edge>
    <edge id=":4_27" function="internal">
        <lane id=":4_27_0" index="0" speed="3.65" length="3.23" shape="740.80,749.20 741.20,750.00 740.80,750.80 739.60,751.60"/>
    </edge>
    <edge id=":east1_0" function="internal">
        <lane id=":east1_0_0" index="0" speed="3.65" length="4.67" shape="1000.00,498.40 1001.20,499.20 1001.60,500.00 1001.20,500.80 1000.00,501.60"/>
    </edge>
    <edge id=":east2_0" function="internal">
        <lane id=":east2_0_0" index="0" speed="3.65" length="4.67" shape="1000.00,748.40 1001.20,749.20 1001.60,750.00 1001.20,750.80 1000.00,751.60"/>
    </edge>
    <edge id=":north1_0" function="internal">
        <lane id=":north1_0_0" index="0" speed="3.65" length="4.67" shape="501.60,1000.00 500.80,1001.20 500.00,1001.60 499.20,1001.20 498.40,1000.00"/>
    </edge>
    <edge id=":north2_0" function="internal">
        <lane id=":north2_0_0" index="0" speed="3.65" length="4.67" shape="751.60,1000.00 750.80,1001.20 750.00,1001.60 749.20,1001.20 748.40,1000.00"/>
    </edge>
    <edge id=":south1_0" function="internal">
        <lane id=":south1_0_0" index="0" speed="3.65" length="4.67" shape="498.40,0.00 499.20,-1.20 500.00,-1.60 500.80,-1.20 501.60,0.00"/>
    </edge>
    <edge id=":south2_0" function="internal">
        <lane id=":south2_0_0" index="0" speed="3.65" length="4.67" shape="748.40,0.00 749.20,-1.20 750.00,-1.60 750.80,-1.20 751.60,0.00"/>
    </edge>
    <edge id=":west1_0" function="internal">
        <lane id=":west1_0_0" index="0" speed="3.65" length="4.67" shape="0.00,501.60 -1.20,500.80 -1.60,500.00 -1.20,499.20 0.00,498.40"/>
    </edge>
    <edge id=":west2_0" function="internal">
        <lane id=":west2_0_0" index="0" speed="3.65" length="4.67" shape="0.00,751.60 -1.20,750.80 -1.60,750.00 -1.20,749.20 0.00,748.40"/>
    </edge>

    <edge id="1_to_2" from="1" to="2" priority="1">
        <lane id="1_to_2_0" index="0" speed="13.89" length="229.20" shape="504.80,510.40 504.80,739.60"/>
        <lane id="1_to_2_1" index="1" speed="13.89" length="229.20" shape="501.60,510.40 501.60,739.60"/>
    </edge>
    <edge id="1_to_3" from="1" to="3" priority="1">
        <lane id="1_to_3_0" index="0" speed="13.89" length="229.20" shape="510.40,495.20 739.60,495.20"/>
        <lane id="1_to_3_1" index="1" speed="13.89" length="229.20" shape="510.40,498.40 739.60,498.40"/>
    </edge>
    <edge id="1_to_south1" from="1" to="south1" priority="1">
        <lane id="1_to_south1_0" index="0" speed="13.89" length="489.60" shape="495.20,489.60 495.20,0.00"/>
        <lane id="1_to_south1_1" index="1" speed="13.89" length="489.60" shape="498.40,489.60 498.40,0.00"/>
    </edge>
    <edge id="1_to_west1" from="1" to="west1" priority="1">
        <lane id="1_to_west1_0" index="0" speed="13.89" length="489.60" shape="489.60,504.80 0.00,504.80"/>
        <lane id="1_to_west1_1" index="1" speed="13.89" length="489.60" shape="489.60,501.60 0.00,501.60"/>
    </edge>
    <edge id="2_to_1" from="2" to="1" priority="1">
        <lane id="2_to_1_0" index="0" speed="13.89" length="229.20" shape="495.20,739.60 495.20,510.40"/>
        <lane id="2_to_1_1" index="1" speed="13.89" length="229.20" shape="498.40,739.60 498.40,510.40"/>
    </edge>
    <edge id="2_to_4" from="2" to="4" priority="1">
        <lane id="2_to_4_0" index="0" speed="13.89" length="229.20" shape="510.40,745.20 739.60,745.20"/>
        <lane id="2_to_4_1" index="1" speed="13.89" length="229.20" shape="510.40,748.40 739.60,748.40"/>
    </edge>
    <edge id="2_to_north1" from="2" to="north1" priority="1">
        <lane id="2_to_north1_0" index="0" speed="13.89" length="239.60" shape="504.80,760.40 504.80,1000.00"/>
        <lane id="2_to_north1_1" index="1" speed="13.89" length="239.60" shape="501.60,760.40 501.60,1000.00"/>
    </edge>
    <edge id="2_to_west2" from="2" to="west2" priority="1">
        <lane id="2_to_west2_0" index="0" speed="13.89" length="489.60" shape="489.60,754.80 0.00,754.80"/>
        <lane id="2_to_west2_1" index="1" speed="13.89" length="489.60" shape="489.60,751.60 0.00,751.60"/>
    </edge>
    <edge id="3_to_1" from="3" to="1" priority="1">
        <lane id="3_to_1_0" index="0" speed="13.89" length="229.20" shape="739.60,504.80 510.40,504.80"/>
        <lane id="3_to_1_1" index="1" speed="13.89" length="229.20" shape="739.60,501.60 510.40,501.60"/>
    </edge>
    <edge id="3_to_4" from="3" to="4" priority="1">
        <lane id="3_to_4_0" index="0" speed="13.89" length="229.20" shape="754.80,510.40 754.80,739.60"/>
        <lane id="3_to_4_1" index="1" speed="13.89" length="229.20" shape="751.60,510.40 751.60,739.60"/>
    </edge>
    <edge id="3_to_east1" from="3" to="east1" priority="1">
        <lane id="3_to_east1_0" index="0" speed="13.89" length="239.60" shape="760.40,495.20 1000.00,495.20"/>
        <lane id="3_to_east1_1" index="1" speed="13.89" length="239.60" shape="760.40,498.40 1000.00,498.40"/>
    </edge>
    <edge id="3_to_south2" from="3" to="south2" priority="1">
        <lane id="3_to_south2_0" index="0" speed="13.89" length="489.60" shape="745.20,489.60 745.20,0.00"/>
        <lane id="3_to_south2_1" index="1" speed="13.89" length="489.60" shape="748.40,489.60 748.40,0.00"/>
    </edge>
    <edge id="4_to_2" from="4" to="2" priority="1">
        <lane id="4_to_2_0" index="0" speed="13.89" length="229.20" shape="739.60,754.80 510.40,754.80"/>
        <lane id="4_to_2_1" index="1" speed="13.89" length="229.20" shape="739.60,751.60 510.40,751.60"/>
    </edge>
    <edge id="4_to_3" from="4" to="3" priority="1">
        <lane id="4_to_3_0" index="0" speed="13.89" length="229.20" shape="745.20,739.60 745.20,510.40"/>
        <lane id="4_to_3_1" index="1" speed="13.89" length="229.20" shape="748.40,739.60 748.40,510.40"/>
    </edge>
    <edge id="4_to_east2" from="4" to="east2" priority="1">
        <lane id="4_to_east2_0" index="0" speed="13.89" length="239.60" shape="760.40,745.20 1000.00,745.20"/>
        <lane id="4_to_east2_1" index="1" speed="13.89" length="239.60" shape="760.40,748.40 1000.00,748.40"/>
    </edge>
    <edge id="4_to_north2" from="4" to="north2" priority="1">
        <lane id="4_to_north2_0" index="0" speed="13.89" length="239.60" shape="754.80,760.40 754.80,1000.00"/>
        <lane id="4_to_north2_1" index="1" speed="13.89" length="239.60" shape="751.60,760.40 751.60,1000.00"/>
    </edge>
    <edge id="east1_to_3" from="east1" to="3" priority="1">
        <lane id="east1_to_3_0" index="0" speed="13.89" length="239.60" shape="1000.00,504.80 760.40,504.80"/>
        <lane id="east1_to_3_1" index="1" speed="13.89" length="239.60" shape="1000.00,501.60 760.40,501.60"/>
    </edge>
    <edge id="east2_to_4" from="east2" to="4" priority="1">
        <lane id="east2_to_4_0" index="0" speed="13.89" length="239.60" shape="1000.00,754.80 760.40,754.80"/>
        <lane id="east2_to_4_1" index="1" speed="13.89" length="239.60" shape="1000.00,751.60 760.40,751.60"/>
    </edge>
    <edge id="north1_to_2" from="north1" to="2" priority="1">
        <lane id="north1_to_2_0" index="0" speed="13.89" length="239.60" shape="495.20,1000.00 495.20,760.40"/>
        <lane id="north1_to_2_1" index="1" speed="13.89" length="239.60" shape="498.40,1000.00 498.40,760.40"/>
    </edge>
    <edge id="north2_to_4" from="north2" to="4" priority="1">
        <lane id="north2_to_4_0" index="0" speed="13.89" length="239.60" shape="745.20,1000.00 745.20,760.40"/>
        <lane id="north2_to_4_1" index="1" speed="13.89" length="239.60" shape="748.40,1000.00 748.40,760.40"/>
    </edge>
    <edge id="south1_to_1" from="south1" to="1" priority="1">
        <lane id="south1_to_1_0" index="0" speed="13.89" length="489.60" shape="504.80,0.00 504.80,489.60"/>
        <lane id="south1_to_1_1" index="1" speed="13.89" length="489.60" shape="501.60,0.00 501.60,489.60"/>
    </edge>
    <edge id="south2_to_3" from="south2" to="3" priority="1">
        <lane id="south2_to_3_0" index="0" speed="13.89" length="489.60" shape="754.80,0.00 754.80,489.60"/>
        <lane id="south2_to_3_1" index="1" speed="13.89" length="489.60" shape="751.60,0.00 751.60,489.60"/>
    </edge>
    <edge id="west1_to_1" from="west1" to="1" priority="1">
        <lane id="west1_to_1_0" index="0" speed="13.89" length="489.60" shape="0.00,495.20 489.60,495.20"/>
        <lane id="west1_to_1_1" index="1" speed="13.89" length="489.60" shape="0.00,498.40 489.60,498.40"/>
    </edge>
    <edge id="west2_to_2" from="west2" to="2" priority="1">
        <lane id="west2_to_2_0" index="0" speed="13.89" length="489.60" shape="0.00,745.20 489.60,745.20"/>
        <lane id="west2_to_2_1" index="1" speed="13.89" length="489.60" shape="0.00,748.40 489.60,748.40"/>
    </edge>

    <tlLogic id="1" type="static" programID="0" offset="0">
        <phase duration="42" state="GGGggrrrrrGGGggrrrrr"/>
        <phase duration="3"  state="yyyyyrrrrryyyyyrrrrr"/>
        <phase duration="42" state="rrrrrGGGggrrrrrGGGgg"/>
        <phase duration="3"  state="rrrrryyyyyrrrrryyyyy"/>
    </tlLogic>
    <tlLogic id="2" type="static" programID="0" offset="0">
        <phase duration="42" state="GGGggrrrrrGGGggrrrrr"/>
        <phase duration="3"  state="yyyyyrrrrryyyyyrrrrr"/>
        <phase duration="42" state="rrrrrGGGggrrrrrGGGgg"/>
        <phase duration="3"  state="rrrrryyyyyrrrrryyyyy"/>
    </tlLogic>
    <tlLogic id="3" type="static" programID="0" offset="0">
        <phase duration="42" state="GGGggrrrrrGGGggrrrrr"/>
        <phase duration="3"  state="yyyyyrrrrryyyyyrrrrr"/>
        <phase duration="42" state="rrrrrGGGggrrrrrGGGgg"/>
        <phase duration="3"  state="rrrrryyyyyrrrrryyyyy"/>
    </tlLogic>
    <tlLogic id="4" type="static" programID="0" offset="0">
        <phase duration="42" state="GGGggrrrrrGGGggrrrrr"/>
        <phase duration="3"  state="yyyyyrrrrryyyyyrrrrr"/>
        <phase duration="42" state="rrrrrGGGggrrrrrGGGgg"/>
        <phase duration="3"  state="rrrrryyyyyrrrrryyyyy"/>
    </tlLogic>

    <junction id="1" type="traffic_light" x="500.00" y="500.00" incLanes="2_to_1_0 2_to_1_1 3_to_1_0 3_to_1_1 south1_to_1_0 south1_to_1_1 west1_to_1_0 west1_to_1_1" intLanes=":1_0_0 :1_1_0 :1_1_1 :1_20_0 :1_21_0 :1_5_0 :1_6_0 :1_6_1 :1_22_0 :1_23_0 :1_10_0 :1_11_0 :1_11_1 :1_24_0 :1_25_0 :1_15_0 :1_16_0 :1_16_1 :1_26_0 :1_27_0" shape="493.60,510.40 506.40,510.40 506.84,508.18 507.40,507.40 508.18,506.84 509.18,506.51 510.40,506.40 510.40,493.60 508.18,493.16 507.40,492.60 506.84,491.82 506.51,490.82 506.40,489.60 493.60,489.60 493.16,491.82 492.60,492.60 491.82,493.16 490.82,493.49 489.60,493.60 489.60,506.40 491.82,506.84 492.60,507.40 493.16,508.18 493.49,509.18">
        <request index="0"  response="00000000000000000000" foes="00000000000011000000" cont="0"/>
        <request index="1"  response="01000000000000000000" foes="01111110000111000000" cont="0"/>